[General]
seed-set = ${0..23}
output-scalar-file-append = true
network = p2psipmanet.simulations.hierarchical
debug-on-errors = true
record-eventlog = false
sim-time-limit = 15min #note: see oversim-specific parameters "transition-time" / "measurement time"
description = "Chord over MANET - mobile scenarios"

**.constraintAreaMinX = 0m
**.constraintAreaMinY = 0m
**.constraintAreaMinZ = 0m
**.constraintAreaMaxX = 1700m
**.constraintAreaMaxY = 1700m
**.constraintAreaMaxZ = 0m

#PING CONFIGS
#**.numPingApps = 1
#**.pingTestApp[*].packetSize = 128B
#**.pingTestApp[*].printPing = true
#**.pingTestApp[*].continuous = true
#**.pingTestApp[*].sendInterval = 1s
#**.gw[*].pingTestApp[*].startTime = 0s
#**.gw[*].pingTestApp[*].stopTime = 0s

#UDP CONFIGS
**.numUdpApps = 1
**.udpApp[*].localPort = 1
**.udpApp[*].destPort = 1
**.udpApp[*].typename = "UDPBasicApp"
**.udpApp[*].messageLength = 1024B	
**.udpApp[*].sendInterval = 1s
**.gw[*].udpApp[*].startTime = 0s
**.gw[*].udpApp[*].stopTime = 0s

#*******************************************************************************************
#overlay
#*******************************************************************************************
**.overlayType = "p2psipmanet.ManetChordModules"
**.overlayId = 0
**.neighborCache.debugOutput = true
**.overlay.chord.drawOverlayTopology = true
**.overlay.chord.routingType = "iterative"
**.overlay*.*.joinOnApplicationRequest = false
**.gw*.**.overlayInterface = "wlan1"

#*******************************************************************************************
#tiers
#*******************************************************************************************
**.tier1Type = "oversim.applications.dht.DHTModules"
**.tier2Type = "p2psipmanet.DHT4Rouring.DHT4RoutingModules"
**.tier3Type = "oversim.common.TierDummy"
**.numTiers = 2
**.dht.numReplica = 4

#********************************************************************************************
# DHT4Routing settings
#********************************************************************************************
**.tier3.debugOutput = true
**.tier2.dht4routing.testTtl = 900
**.tier2.dht4routing.testInterval = 60s
**.tier2.dht4routing.DHT4RoutingtransitionTime = 100s
**.tier2.dht4routing.DHT4RoutingmeasurementTime = 800s
**.tier2.dht4routing.p2pnsTraffic = false
**.tier1.dht.resolveToSelfAttack = false

#*********************************************************************************************
#GLOBAL OBSERVER CONFIGS
#*********************************************************************************************
**.globalObserver.globalFunctions[0].functionType = "p2psipmanet.DHT4Rouring.GlobalDhtTestMap"
**.globalObserver.numGlobalFunctions = 1
**.globalObserver.globalNodeList.maliciousNodeChange = false
**.globalObserver.globalNodeList.maliciousNodeChangeStopValue = 0
**.globalObserver.globalNodeList.maliciousNodeProbability = 0
**.terminalTypes= "p2psipmanet.host, inet.nodes.inet.AdhocHost"
**.churnGeneratorTypes = "p2psipmanet.ZeroChurn" # a list of churn generators to be used
**.transitionTime = 100s
**.measurementTime = 800s


#*********************************************************************************************
# Attack / GlobalNodeList settings
#*********************************************************************************************
**.overlay*.*.dropFindNodeAttack = false
**.overlay*.*.isSiblingAttack = false
**.overlay*.*.invalidNodesAttack = false
**.overlay*.*.dropRouteMessageAttack = false
**.tier1*.dht.invalidDataAttack = false
**.tier1*.dht.maintenanceAttack = false
*.globalObserver.globalNodeList.maliciousNodeChangeStartTime = 200s
*.globalObserver.globalNodeList.maliciousNodeChangeRate = 0.05
*.globalObserver.globalNodeList.maliciousNodeChangeInterval = 10s
*.globalObserver.globalNodeList.maliciousNodeChangeStartValue = 0

#**********************************************************************************************
# configure routing and interface info
#**********************************************************************************************
**.gw*.manetrouting.announcedNetworks = "0.0.0.0/0.0.0.0"
**.configurator.dumpAddresses = true
**.configurator.dumpTopology = true
**.configurator.dumpRoutes = true
**.configurator.addStaticRoutes = false
**.configurator.addDefaultRoutes = false
**.configurator.addSubnetRoutes = false
**.routingProtocol = "OLSR"
**.backboneRoutingProtocol = "OLSR" 
**.manetrouting.excludedInterfaces = "wlan1"
**.manetrouting.interfaces = "wlan0"
**.backbonemanetrouting.excludedInterfaces = "wlan0"
**.backbonemanetrouting.interfaces = "wlan1"

#**********************************************************************************************
#RADIO CONFIGS
#**********************************************************************************************
**.wlan[*].bitrate = 11Mbps

#**********************************************************************************************
#Others
#**********************************************************************************************

**.vector-recording = false
**.scalar-recording = true
**.printOLSRmessages = true

##################################
#OLSR CONFIG
##################################
**.isStatic = true
**.stabilization = 200s

##############################################################################################
[Config TwoClusters]
##############################################################################################
**.mobilityType = "StationaryMobility"
**.mobility.initFromDisplayString = true

*.gw[*].wlan[*].radio.maxDistance = 500m
*.host[*].wlan[*].radio.maxDistance = 100m

**.host[0..39].pingTestApp[*].startTime = 210s

**.host[0].pingTestApp[*].destAddresses = "host[10]"
**.host[1].pingTestApp[*].destAddresses = "host[11]"
**.host[2].pingTestApp[*].destAddresses = "host[12]"
**.host[3].pingTestApp[*].destAddresses = "host[13]"
**.host[4].pingTestApp[*].destAddresses = "host[14]"
**.host[5].pingTestApp[*].destAddresses = "host[4]"
**.host[6].pingTestApp[*].destAddresses = "host[3]"
**.host[7].pingTestApp[*].destAddresses = "host[2]"
**.host[8].pingTestApp[*].destAddresses = "host[1]"
**.host[9].pingTestApp[*].destAddresses = "host[0]"

**.host[10].pingTestApp[*].destAddresses = "host[19]"
**.host[11].pingTestApp[*].destAddresses = "host[18]"
**.host[12].pingTestApp[*].destAddresses = "host[17]"
**.host[13].pingTestApp[*].destAddresses = "host[16]"
**.host[14].pingTestApp[*].destAddresses = "host[15]"
**.host[15].pingTestApp[*].destAddresses = "host[5]"
**.host[16].pingTestApp[*].destAddresses = "host[6]"
**.host[17].pingTestApp[*].destAddresses = "host[7]"
**.host[18].pingTestApp[*].destAddresses = "host[8]"
**.host[19].pingTestApp[*].destAddresses = "host[9]"

**.hosts = 20
**.gw = 5

#active gateway position
**.gw[0].*.constraintAreaMinX = 200m
**.gw[0].*.constraintAreaMinY = 100m
**.gw[0].*.constraintAreaMaxX = 200m
**.gw[0].*.constraintAreaMaxY = 100m
**.gw[1].*.constraintAreaMinX = 500m
**.gw[1].*.constraintAreaMinY = 100m
**.gw[1].*.constraintAreaMaxX = 500m
**.gw[1].*.constraintAreaMaxY = 100m
**.gw[2].*.constraintAreaMinX = 800m
**.gw[2].*.constraintAreaMinY = 100m
**.gw[2].*.constraintAreaMaxX = 800m
**.gw[2].*.constraintAreaMaxY = 100m
**.gw[3].*.constraintAreaMinX = 1100m
**.gw[3].*.constraintAreaMinY = 100m
**.gw[3].*.constraintAreaMaxX = 1100m
**.gw[3].*.constraintAreaMaxY = 100m
**.gw[4].*.constraintAreaMinX = 1400m
**.gw[4].*.constraintAreaMinY = 100m
**.gw[4].*.constraintAreaMaxX = 1400m
**.gw[4].*.constraintAreaMaxY = 100m

#NODE POSITIONS
# Cluster 1
**.host[1].*.constraintAreaMinX = 100m
**.host[1].*.constraintAreaMinY = 0m
**.host[1].*.constraintAreaMaxX = 300m
**.host[1].*.constraintAreaMaxY = 200m
**.host[2].*.constraintAreaMinX = 100m
**.host[2].*.constraintAreaMinY = 0m
**.host[2].*.constraintAreaMaxX = 300m
**.host[2].*.constraintAreaMaxY = 200m
# Cluster 2
**.host[1*].*.constraintAreaMinX = 1300m
**.host[1*].*.constraintAreaMinY = 0m  
**.host[1*].*.constraintAreaMaxX = 1500m
**.host[1*].*.constraintAreaMaxY = 200m
# Cluster 1
**.host[*].*.constraintAreaMinX = 100m  
**.host[*].*.constraintAreaMinY = 0m  
**.host[*].*.constraintAreaMaxX = 300m
**.host[*].*.constraintAreaMaxY = 200m

# configure IPv4 addresses
*.configurator.config = xml( \
"<config>\
		<interface hosts='gw[4]' names='wlan0' address='10.0.5.x' netmask='255.255.255.0'/>\
		<interface hosts='gw[3]' names='wlan0' address='10.0.4.x' netmask='255.255.255.0'/>\
		<interface hosts='gw[2]' names='wlan0' address='10.0.3.x' netmask='255.255.255.0'/>\
		<interface hosts='gw[1]' names='wlan0' address='10.0.2.x' netmask='255.255.255.0'/>\
		<interface hosts='gw[0] host[1]' names='wlan0' address='10.0.1.x' netmask='255.255.255.0'/>\
		<interface hosts='gw[4] host[1*]' names='wlan0' address='10.0.5.x' netmask='255.255.255.0'/>\
		<interface hosts='gw[0] host[*]' names='wlan0' address='10.0.1.x' netmask='255.255.255.0'/>\
		<interface hosts='gw[0] gw[1] gw[2] gw[3] gw[4]' names='wlan1' address='10.0.0.x' netmask='255.255.255.0'/>\
</config>")


# number of radios per host
*.gw[*].numRadios = 2
*.host[*].numRadios = 1

# number of channels used
**.channelControl.numChannels = 6

# wlan interface - radio channel assignemnt
# wlan 0 - gateways
**.gw[0].wlan[0].radio.channelNumber = 0
**.gw[1].wlan[0].radio.channelNumber = 1
**.gw[2].wlan[0].radio.channelNumber = 2
**.gw[3].wlan[0].radio.channelNumber = 3
**.gw[4].wlan[0].radio.channelNumber = 4

# wlan 1 - gateways
**.gw[*].wlan[1].radio.channelNumber = 5

# wlan 0 - hosts
**.host[1].wlan[0].radio.channelNumber = 0
**.host[1*].wlan[0].radio.channelNumber = 4
**.host[*].wlan[0].radio.channelNumber = 0

##############################################################################################
[Config TwoClustersUDP]
##############################################################################################
**.mobilityType = "StationaryMobility"
**.mobility.initFromDisplayString = true

*.gw[*].wlan[*].radio.maxDistance = 500m
*.host[*].wlan[*].radio.maxDistance = 100m

**.host[0..19].udpApp[*].startTime = 210s

**.host[0].udpApp[*].destAddresses = "host[10]"
**.host[1].udpApp[*].destAddresses = "host[11]"
**.host[2].udpApp[*].destAddresses = "host[12]"
**.host[3].udpApp[*].destAddresses = "host[13]"
**.host[4].udpApp[*].destAddresses = "host[14]"
**.host[5].udpApp[*].destAddresses = "host[4]"
**.host[6].udpApp[*].destAddresses = "host[3]"
**.host[7].udpApp[*].destAddresses = "host[2]"
**.host[8].udpApp[*].destAddresses = "host[1]"
**.host[9].udpApp[*].destAddresses = "host[0]"

**.host[10].udpApp[*].destAddresses = "host[19]"
**.host[11].udpApp[*].destAddresses = "host[18]"
**.host[12].udpApp[*].destAddresses = "host[17]"
**.host[13].udpApp[*].destAddresses = "host[16]"
**.host[14].udpApp[*].destAddresses = "host[15]"
**.host[15].udpApp[*].destAddresses = "host[5]"
**.host[16].udpApp[*].destAddresses = "host[6]"
**.host[17].udpApp[*].destAddresses = "host[7]"
**.host[18].udpApp[*].destAddresses = "host[8]"
**.host[19].udpApp[*].destAddresses = "host[9]"

**.hosts = 20
**.gw = 5

#active gateway position
**.gw[0].*.constraintAreaMinX = 200m
**.gw[0].*.constraintAreaMinY = 100m
**.gw[0].*.constraintAreaMaxX = 200m
**.gw[0].*.constraintAreaMaxY = 100m
**.gw[1].*.constraintAreaMinX = 500m
**.gw[1].*.constraintAreaMinY = 100m
**.gw[1].*.constraintAreaMaxX = 500m
**.gw[1].*.constraintAreaMaxY = 100m
**.gw[2].*.constraintAreaMinX = 800m
**.gw[2].*.constraintAreaMinY = 100m
**.gw[2].*.constraintAreaMaxX = 800m
**.gw[2].*.constraintAreaMaxY = 100m
**.gw[3].*.constraintAreaMinX = 1100m
**.gw[3].*.constraintAreaMinY = 100m
**.gw[3].*.constraintAreaMaxX = 1100m
**.gw[3].*.constraintAreaMaxY = 100m
**.gw[4].*.constraintAreaMinX = 1400m
**.gw[4].*.constraintAreaMinY = 100m
**.gw[4].*.constraintAreaMaxX = 1400m
**.gw[4].*.constraintAreaMaxY = 100m

#NODE POSITIONS
# Cluster 1
**.host[1].*.constraintAreaMinX = 100m
**.host[1].*.constraintAreaMinY = 0m
**.host[1].*.constraintAreaMaxX = 300m
**.host[1].*.constraintAreaMaxY = 200m
**.host[2].*.constraintAreaMinX = 100m
**.host[2].*.constraintAreaMinY = 0m
**.host[2].*.constraintAreaMaxX = 300m
**.host[2].*.constraintAreaMaxY = 200m
# Cluster 2
**.host[1*].*.constraintAreaMinX = 1300m
**.host[1*].*.constraintAreaMinY = 0m
**.host[1*].*.constraintAreaMaxX = 1500m
**.host[1*].*.constraintAreaMaxY = 200m
# Cluster 1
**.host[*].*.constraintAreaMinX = 100m  
**.host[*].*.constraintAreaMinY = 0m
**.host[*].*.constraintAreaMaxX = 300m
**.host[*].*.constraintAreaMaxY = 200m

# configure IPv4 addresses
*.configurator.config = xml( \
"<config>\
		<interface hosts='gw[4]' names='wlan0' address='10.0.5.x' netmask='255.255.255.0'/>\
		<interface hosts='gw[3]' names='wlan0' address='10.0.4.x' netmask='255.255.255.0'/>\
		<interface hosts='gw[2]' names='wlan0' address='10.0.3.x' netmask='255.255.255.0'/>\
		<interface hosts='gw[1]' names='wlan0' address='10.0.2.x' netmask='255.255.255.0'/>\
		<interface hosts='gw[0] host[1]' names='wlan0' address='10.0.1.x' netmask='255.255.255.0'/>\
		<interface hosts='gw[4] host[1*]' names='wlan0' address='10.0.5.x' netmask='255.255.255.0'/>\
		<interface hosts='gw[0] host[*]' names='wlan0' address='10.0.1.x' netmask='255.255.255.0'/>\
		<interface hosts='gw[0] gw[1] gw[2] gw[3] gw[4]' names='wlan1' address='10.0.0.x' netmask='255.255.255.0'/>\
</config>")

# number of radios per host
*.gw[*].numRadios = 2
*.host[*].numRadios = 1

# number of channels used
**.channelControl.numChannels = 6

# wlan interface - radio channel assignemnt
# wlan 0 - gateways
**.gw[0].wlan[0].radio.channelNumber = 0
**.gw[1].wlan[0].radio.channelNumber = 1
**.gw[2].wlan[0].radio.channelNumber = 2
**.gw[3].wlan[0].radio.channelNumber = 3
**.gw[4].wlan[0].radio.channelNumber = 4

# wlan 1 - gateways
**.gw[*].wlan[1].radio.channelNumber = 5

# wlan 0 - hosts
**.host[1].wlan[0].radio.channelNumber = 0
**.host[1*].wlan[0].radio.channelNumber = 4
**.host[*].wlan[0].radio.channelNumber = 0

##############################################################################################
[Config ThreeClusters]
##############################################################################################
**.mobilityType = "StationaryMobility"
**.mobility.initFromDisplayString = true

*.gw[*].wlan[*].radio.maxDistance = 500m
*.host[*].wlan[*].radio.maxDistance = 100m

**.hosts = 30
**.gw = 5

**.host[20].pingTestApp[*].startTime = 210.20s
**.host[21].pingTestApp[*].startTime = 210.21s
**.host[22].pingTestApp[*].startTime = 210.22s
**.host[23].pingTestApp[*].startTime = 210.23s
**.host[24].pingTestApp[*].startTime = 210.24s
**.host[25].pingTestApp[*].startTime = 210.25s
**.host[26].pingTestApp[*].startTime = 210.26s
**.host[27].pingTestApp[*].startTime = 210.27s
**.host[28].pingTestApp[*].startTime = 210.28s
**.host[29].pingTestApp[*].startTime = 210.29s

**.host[0].pingTestApp[*].destAddresses = "host[10]"
**.host[1].pingTestApp[*].destAddresses = "host[11]"
**.host[2].pingTestApp[*].destAddresses = "host[12]"
**.host[3].pingTestApp[*].destAddresses = "host[13]"
**.host[4].pingTestApp[*].destAddresses = "host[24]"
**.host[5].pingTestApp[*].destAddresses = "host[25]"
**.host[6].pingTestApp[*].destAddresses = "host[26]"
**.host[7].pingTestApp[*].destAddresses = "host[0]"
**.host[8].pingTestApp[*].destAddresses = "host[1]"
**.host[9].pingTestApp[*].destAddresses = "host[2]"

**.host[10].pingTestApp[*].destAddresses = "host[20]"
**.host[11].pingTestApp[*].destAddresses = "host[21]"
**.host[12].pingTestApp[*].destAddresses = "host[22]"
**.host[13].pingTestApp[*].destAddresses = "host[23]"
**.host[14].pingTestApp[*].destAddresses = "host[4]"
**.host[15].pingTestApp[*].destAddresses = "host[5]"
**.host[16].pingTestApp[*].destAddresses = "host[6]"
**.host[17].pingTestApp[*].destAddresses = "host[10]"
**.host[18].pingTestApp[*].destAddresses = "host[11]"
**.host[19].pingTestApp[*].destAddresses = "host[12]"

**.host[20].pingTestApp[*].destAddresses = "host[26]"
**.host[21].pingTestApp[*].destAddresses = "host[27]"
**.host[22].pingTestApp[*].destAddresses = "host[28]"
**.host[23].pingTestApp[*].destAddresses = "host[29]"
**.host[24].pingTestApp[*].destAddresses = "host[7]"
**.host[25].pingTestApp[*].destAddresses = "host[8]"
**.host[26].pingTestApp[*].destAddresses = "host[9]"
**.host[27].pingTestApp[*].destAddresses = "host[17]"
**.host[28].pingTestApp[*].destAddresses = "host[18]"
**.host[29].pingTestApp[*].destAddresses = "host[19]"

#active gateway position
**.gw[0].*.constraintAreaMinX = 200m
**.gw[0].*.constraintAreaMinY = 100m
**.gw[0].*.constraintAreaMaxX = 200m
**.gw[0].*.constraintAreaMaxY = 100m
**.gw[1].*.constraintAreaMinX = 500m
**.gw[1].*.constraintAreaMinY = 100m
**.gw[1].*.constraintAreaMaxX = 500m
**.gw[1].*.constraintAreaMaxY = 100m
**.gw[2].*.constraintAreaMinX = 800m
**.gw[2].*.constraintAreaMinY = 100m
**.gw[2].*.constraintAreaMaxX = 800m
**.gw[2].*.constraintAreaMaxY = 100m
**.gw[3].*.constraintAreaMinX = 1100m
**.gw[3].*.constraintAreaMinY = 100m
**.gw[3].*.constraintAreaMaxX = 1100m
**.gw[3].*.constraintAreaMaxY = 100m
**.gw[4].*.constraintAreaMinX = 1400m
**.gw[4].*.constraintAreaMinY = 100m
**.gw[4].*.constraintAreaMaxX = 1400m
**.gw[4].*.constraintAreaMaxY = 100m

#NODE POSITIONS
# Cluster 1
**.host[1].*.constraintAreaMinX = 100m
**.host[1].*.constraintAreaMinY = 0m
**.host[1].*.constraintAreaMaxX = 300m
**.host[1].*.constraintAreaMaxY = 200m
**.host[2].*.constraintAreaMinX = 100m
**.host[2].*.constraintAreaMinY = 0m
**.host[2].*.constraintAreaMaxX = 300m
**.host[2].*.constraintAreaMaxY = 200m
# Cluster 3
**.host[2*].*.constraintAreaMinX = 700m
**.host[2*].*.constraintAreaMinY = 0m  
**.host[2*].*.constraintAreaMaxX = 900m
**.host[2*].*.constraintAreaMaxY = 200m
# Cluster 2
**.host[1*].*.constraintAreaMinX = 1300m
**.host[1*].*.constraintAreaMinY = 0m  
**.host[1*].*.constraintAreaMaxX = 1500m
**.host[1*].*.constraintAreaMaxY = 200m
# Cluster 1
**.host[*].*.constraintAreaMinX = 100m  
**.host[*].*.constraintAreaMinY = 0m  
**.host[*].*.constraintAreaMaxX = 300m
**.host[*].*.constraintAreaMaxY = 200m

# configure IPv4 addresses
*.configurator.config = xml( \
"<config>\
		<interface hosts='gw[4]' names='wlan0' address='10.0.5.x' netmask='255.255.255.0'/>\
		<interface hosts='gw[3]' names='wlan0' address='10.0.4.x' netmask='255.255.255.0'/>\
		<interface hosts='gw[2]' names='wlan0' address='10.0.3.x' netmask='255.255.255.0'/>\
		<interface hosts='gw[1]' names='wlan0' address='10.0.2.x' netmask='255.255.255.0'/>\
		<interface hosts='gw[0] host[1] host[2]' names='wlan0' address='10.0.1.x' netmask='255.255.255.0'/>\
		<interface hosts='gw[2] host[1*]' names='wlan0' address='10.0.3.x' netmask='255.255.255.0'/>\
		<interface hosts='gw[4] host[2*]' names='wlan0' address='10.0.5.x' netmask='255.255.255.0'/>\
		<interface hosts='gw[0] host[*]' names='wlan0' address='10.0.1.x' netmask='255.255.255.0'/>\
		<interface hosts='gw[0] gw[1] gw[2] gw[3] gw[4]' names='wlan1' address='10.0.0.x' netmask='255.255.255.0'/>\
</config>")

# number of radios per host
*.gw[*].numRadios = 2
*.host[*].numRadios = 1

# number of channels used
**.channelControl.numChannels = 6

# wlan interface - radio channel assignemnt
# wlan 0 - gateways
**.gw[0].wlan[0].radio.channelNumber = 0
**.gw[1].wlan[0].radio.channelNumber = 1
**.gw[2].wlan[0].radio.channelNumber = 2
**.gw[3].wlan[0].radio.channelNumber = 3
**.gw[4].wlan[0].radio.channelNumber = 4

# wlan 1 - gateways
**.gw[*].wlan[1].radio.channelNumber = 5

# wlan 0 - hosts
**.host[1].wlan[0].radio.channelNumber = 0
**.host[2].wlan[0].radio.channelNumber = 0
**.host[2*].wlan[0].radio.channelNumber = 2
**.host[1*].wlan[0].radio.channelNumber = 4
**.host[*].wlan[0].radio.channelNumber = 0

##############################################################################################
[Config FourClusters]
##############################################################################################
**.mobilityType = "StationaryMobility"
**.mobility.initFromDisplayString = true

*.gw[*].wlan[*].radio.maxDistance = 500m
*.host[*].wlan[*].radio.maxDistance = 100m

**.hosts = 40
**.gw = 5

**.host[20].pingTestApp[*].startTime = 210.20s
**.host[21].pingTestApp[*].startTime = 210.21s
**.host[22].pingTestApp[*].startTime = 210.22s
**.host[23].pingTestApp[*].startTime = 210.23s
**.host[24].pingTestApp[*].startTime = 210.24s
**.host[25].pingTestApp[*].startTime = 210.25s
**.host[26].pingTestApp[*].startTime = 210.26s
**.host[27].pingTestApp[*].startTime = 210.27s
**.host[28].pingTestApp[*].startTime = 210.28s
**.host[29].pingTestApp[*].startTime = 210.29s

**.host[30].pingTestApp[*].startTime = 210.30s
**.host[31].pingTestApp[*].startTime = 210.31s
**.host[32].pingTestApp[*].startTime = 210.32s
**.host[33].pingTestApp[*].startTime = 210.33s
**.host[34].pingTestApp[*].startTime = 210.34s
**.host[35].pingTestApp[*].startTime = 210.35s
**.host[36].pingTestApp[*].startTime = 210.36s
**.host[37].pingTestApp[*].startTime = 210.37s
**.host[38].pingTestApp[*].startTime = 210.38s
**.host[39].pingTestApp[*].startTime = 210.39s

**.host[0].pingTestApp[*].destAddresses = "host[30]"
**.host[1].pingTestApp[*].destAddresses = "host[31]"
**.host[2].pingTestApp[*].destAddresses = "host[32]"
**.host[3].pingTestApp[*].destAddresses = "host[13]"
**.host[4].pingTestApp[*].destAddresses = "host[14]"
**.host[5].pingTestApp[*].destAddresses = "host[26]"
**.host[6].pingTestApp[*].destAddresses = "host[25]"
**.host[7].pingTestApp[*].destAddresses = "host[0]"
**.host[8].pingTestApp[*].destAddresses = "host[1]"
**.host[9].pingTestApp[*].destAddresses = "host[2]"

**.host[10].pingTestApp[*].destAddresses = "host[7]"
**.host[11].pingTestApp[*].destAddresses = "host[8]"
**.host[12].pingTestApp[*].destAddresses = "host[20]"
**.host[13].pingTestApp[*].destAddresses = "host[23]"
**.host[14].pingTestApp[*].destAddresses = "host[24]"
**.host[15].pingTestApp[*].destAddresses = "host[36]"
**.host[16].pingTestApp[*].destAddresses = "host[37]"
**.host[17].pingTestApp[*].destAddresses = "host[10]"
**.host[18].pingTestApp[*].destAddresses = "host[11]"
**.host[19].pingTestApp[*].destAddresses = "host[12]"

**.host[20].pingTestApp[*].destAddresses = "host[17]"
**.host[21].pingTestApp[*].destAddresses = "host[18]"
**.host[22].pingTestApp[*].destAddresses = "host[15]"
**.host[23].pingTestApp[*].destAddresses = "host[33]"
**.host[24].pingTestApp[*].destAddresses = "host[34]"
**.host[25].pingTestApp[*].destAddresses = "host[35]"
**.host[26].pingTestApp[*].destAddresses = "host[6]"
**.host[27].pingTestApp[*].destAddresses = "host[9]"
**.host[28].pingTestApp[*].destAddresses = "host[21]"
**.host[29].pingTestApp[*].destAddresses = "host[22]"

**.host[30].pingTestApp[*].destAddresses = "host[27]"
**.host[31].pingTestApp[*].destAddresses = "host[28]"
**.host[32].pingTestApp[*].destAddresses = "host[19]"
**.host[33].pingTestApp[*].destAddresses = "host[3]"
**.host[34].pingTestApp[*].destAddresses = "host[4]"
**.host[35].pingTestApp[*].destAddresses = "host[5]"
**.host[36].pingTestApp[*].destAddresses = "host[39]"
**.host[37].pingTestApp[*].destAddresses = "host[38]"
**.host[38].pingTestApp[*].destAddresses = "host[16]"
**.host[39].pingTestApp[*].destAddresses = "host[29]"

#active gateway position
**.gw[0].*.constraintAreaMinX = 200m
**.gw[0].*.constraintAreaMinY = 100m
**.gw[0].*.constraintAreaMaxX = 200m
**.gw[0].*.constraintAreaMaxY = 100m
**.gw[1].*.constraintAreaMinX = 500m
**.gw[1].*.constraintAreaMinY = 100m
**.gw[1].*.constraintAreaMaxX = 500m
**.gw[1].*.constraintAreaMaxY = 100m
**.gw[2].*.constraintAreaMinX = 800m
**.gw[2].*.constraintAreaMinY = 100m
**.gw[2].*.constraintAreaMaxX = 800m
**.gw[2].*.constraintAreaMaxY = 100m
**.gw[3].*.constraintAreaMinX = 1100m
**.gw[3].*.constraintAreaMinY = 100m
**.gw[3].*.constraintAreaMaxX = 1100m
**.gw[3].*.constraintAreaMaxY = 100m
**.gw[4].*.constraintAreaMinX = 1400m
**.gw[4].*.constraintAreaMinY = 100m
**.gw[4].*.constraintAreaMaxX = 1400m
**.gw[4].*.constraintAreaMaxY = 100m

#NODE POSITIONS
# Cluster 1
**.host[1].*.constraintAreaMinX = 100m
**.host[1].*.constraintAreaMinY = 0m
**.host[1].*.constraintAreaMaxX = 300m
**.host[1].*.constraintAreaMaxY = 200m
**.host[2].*.constraintAreaMinX = 100m  
**.host[2].*.constraintAreaMinY = 0m  
**.host[2].*.constraintAreaMaxX = 300m
**.host[2].*.constraintAreaMaxY = 200m
**.host[3].*.constraintAreaMinX = 100m  
**.host[3].*.constraintAreaMinY = 0m  
**.host[3].*.constraintAreaMaxX = 300m
**.host[3].*.constraintAreaMaxY = 200m
# Cluster 4
**.host[3*].*.constraintAreaMinX = 1300m
**.host[3*].*.constraintAreaMinY = 0m
**.host[3*].*.constraintAreaMaxX = 1500m
**.host[3*].*.constraintAreaMaxY = 200m
# Cluster 3
**.host[2*].*.constraintAreaMinX = 700m
**.host[2*].*.constraintAreaMinY = 0m
**.host[2*].*.constraintAreaMaxX = 900m
**.host[2*].*.constraintAreaMaxY = 200m
# Cluster 2
**.host[1*].*.constraintAreaMinX = 400m
**.host[1*].*.constraintAreaMinY = 0m  
**.host[1*].*.constraintAreaMaxX = 600m
**.host[1*].*.constraintAreaMaxY = 200m
# Cluster 1
**.host[*].*.constraintAreaMinX = 100m  
**.host[*].*.constraintAreaMinY = 0m  
**.host[*].*.constraintAreaMaxX = 300m
**.host[*].*.constraintAreaMaxY = 200m

# configure IPv4 addresses
*.configurator.config = xml( \
"<config>\
		<interface hosts='gw[4]' names='wlan0' address='10.0.5.x' netmask='255.255.255.0'/>\
		<interface hosts='gw[3]' names='wlan0' address='10.0.4.x' netmask='255.255.255.0'/>\
		<interface hosts='gw[2]' names='wlan0' address='10.0.3.x' netmask='255.255.255.0'/>\
		<interface hosts='gw[1]' names='wlan0' address='10.0.2.x' netmask='255.255.255.0'/>\
		<interface hosts='gw[0] host[1] host[2] host[3]' names='wlan0' address='10.0.1.x' netmask='255.255.255.0'/>\
		<interface hosts='gw[1] host[1*]' names='wlan0' address='10.0.2.x' netmask='255.255.255.0'/>\
		<interface hosts='gw[2] host[2*]' names='wlan0' address='10.0.3.x' netmask='255.255.255.0'/>\
		<interface hosts='gw[4] host[3*]' names='wlan0' address='10.0.5.x' netmask='255.255.255.0'/>\
		<interface hosts='gw[0] host[*]' names='wlan0' address='10.0.1.x' netmask='255.255.255.0'/>\
		<interface hosts='gw[0] gw[1] gw[2] gw[3] gw[4]' names='wlan1' address='10.0.0.x' netmask='255.255.255.0'/>\
</config>")

# number of radios per host
*.gw[*].numRadios = 2
*.host[*].numRadios = 1
 
# number of channels used
**.channelControl.numChannels = 6

# wlan interface - radio channel assignemnt
# wlan 0 - gateways
**.gw[0].wlan[0].radio.channelNumber = 0
**.gw[1].wlan[0].radio.channelNumber = 1
**.gw[2].wlan[0].radio.channelNumber = 2
**.gw[3].wlan[0].radio.channelNumber = 3
**.gw[4].wlan[0].radio.channelNumber = 4

# wlan 1 - gateways
**.gw[*].wlan[1].radio.channelNumber = 5

# wlan 0 - hosts
**.host[1].wlan[0].radio.channelNumber = 0
**.host[2].wlan[0].radio.channelNumber = 0
**.host[3].wlan[0].radio.channelNumber = 0
**.host[3*].wlan[0].radio.channelNumber = 4
**.host[2*].wlan[0].radio.channelNumber = 2
**.host[1*].wlan[0].radio.channelNumber = 1
**.host[*].wlan[0].radio.channelNumber = 0

##############################################################################################
[Config FiveClusters]
##############################################################################################
**.mobilityType = "StationaryMobility"
**.mobility.initFromDisplayString = true

*.gw[*].wlan[*].radio.maxDistance = 500m
*.host[*].wlan[*].radio.maxDistance = 100m

**.hosts = 50
**.gw = 5

**.host[20].pingTestApp[*].startTime = 210.20s
**.host[21].pingTestApp[*].startTime = 210.21s
**.host[22].pingTestApp[*].startTime = 210.22s
**.host[23].pingTestApp[*].startTime = 210.23s
**.host[24].pingTestApp[*].startTime = 210.24s
**.host[25].pingTestApp[*].startTime = 210.25s
**.host[26].pingTestApp[*].startTime = 210.26s
**.host[27].pingTestApp[*].startTime = 210.27s
**.host[28].pingTestApp[*].startTime = 210.28s
**.host[29].pingTestApp[*].startTime = 210.29s

**.host[30].pingTestApp[*].startTime = 210.30s
**.host[31].pingTestApp[*].startTime = 210.31s
**.host[32].pingTestApp[*].startTime = 210.32s
**.host[33].pingTestApp[*].startTime = 210.33s
**.host[34].pingTestApp[*].startTime = 210.34s
**.host[35].pingTestApp[*].startTime = 210.35s
**.host[36].pingTestApp[*].startTime = 210.36s
**.host[37].pingTestApp[*].startTime = 210.37s
**.host[38].pingTestApp[*].startTime = 210.38s
**.host[39].pingTestApp[*].startTime = 210.39s

**.host[40].pingTestApp[*].startTime = 210.40s
**.host[41].pingTestApp[*].startTime = 210.41s
**.host[42].pingTestApp[*].startTime = 210.42s
**.host[43].pingTestApp[*].startTime = 210.43s
**.host[44].pingTestApp[*].startTime = 210.44s
**.host[45].pingTestApp[*].startTime = 210.45s
**.host[46].pingTestApp[*].startTime = 210.46s
**.host[47].pingTestApp[*].startTime = 210.47s
**.host[48].pingTestApp[*].startTime = 210.48s
**.host[49].pingTestApp[*].startTime = 210.49s

**.host[0].pingTestApp[*].destAddresses = "host[8]"
**.host[1].pingTestApp[*].destAddresses = "host[9]"
**.host[2].pingTestApp[*].destAddresses = "host[22]"
**.host[3].pingTestApp[*].destAddresses = "host[23]"
**.host[4].pingTestApp[*].destAddresses = "host[34]"
**.host[5].pingTestApp[*].destAddresses = "host[35]"
**.host[6].pingTestApp[*].destAddresses = "host[46]"
**.host[7].pingTestApp[*].destAddresses = "host[47]"
**.host[8].pingTestApp[*].destAddresses = "host[10]"
**.host[9].pingTestApp[*].destAddresses = "host[11]"

**.host[10].pingTestApp[*].destAddresses = "host[18]"
**.host[11].pingTestApp[*].destAddresses = "host[19]"
**.host[12].pingTestApp[*].destAddresses = "host[32]"
**.host[13].pingTestApp[*].destAddresses = "host[33]"
**.host[14].pingTestApp[*].destAddresses = "host[44]"
**.host[15].pingTestApp[*].destAddresses = "host[45]"
**.host[16].pingTestApp[*].destAddresses = "host[6]"
**.host[17].pingTestApp[*].destAddresses = "host[7]"
**.host[18].pingTestApp[*].destAddresses = "host[20]"
**.host[19].pingTestApp[*].destAddresses = "host[21]"

**.host[20].pingTestApp[*].destAddresses = "host[28]"
**.host[21].pingTestApp[*].destAddresses = "host[29]"