[General]
repeat = 5
#seed-set = ${repetition}
seed-set = 4
network = p2psipmanet.simulations.Silas.Flooding
debug-on-errors = true
record-eventlog = false
sim-time-limit = 15min #note: see oversim-specific parameters "transition-time" / "measurement time"
description = "Flooding"


**.constraintAreaMinX = 0m
**.constraintAreaMaxX = 2000m
**.constraintAreaMinY = 0m
**.constraintAreaMaxY = 2000m
**.constraintAreaMinZ = 0m
**.constraintAreaMaxZ = 0m


# General UDP configuration. Base Scenario
**.numUdpApps = 1
**.udpApp[*].typename = "UDPBasicApp"
**.udpApp[*].stopTime=900s

**.udpApp[*].messageLength=1024B
**.udpApp[*].destPort=1000
**.udpApp[*].localPort=1000

**.host[0]**.startTime = 100.000s
**.host[1]**.startTime = 100.001s
**.host[2]**.startTime = 100.002s
**.host[3]**.startTime = 100.003s
**.host[4]**.startTime = 100.004s
**.host[5]**.startTime = 100.005s
**.host[6]**.startTime = 100.006s
**.host[7]**.startTime = 100.007s
**.host[8]**.startTime = 100.008s
**.host[9]**.startTime = 100.009s
**.host[10]**.startTime = 100.010s
**.host[11]**.startTime = 100.011s
**.host[12]**.startTime = 100.012s
**.host[13]**.startTime = 100.013s
**.host[14]**.startTime = 100.014s
**.host[15]**.startTime = 100.015s
**.host[16]**.startTime = 100.016s
**.host[17]**.startTime = 100.017s
**.host[18]**.startTime = 100.018s
**.host[19]**.startTime = 100.019s
**.host[20]**.startTime = 100.020s
**.host[21]**.startTime = 100.021s
**.host[22]**.startTime = 100.022s
**.host[23]**.startTime = 100.023s
**.host[24]**.startTime = 100.024s
**.host[25]**.startTime = 100.025s
**.host[26]**.startTime = 100.026s
**.host[27]**.startTime = 100.027s
**.host[28]**.startTime = 100.028s
**.host[29]**.startTime = 100.029s
**.host[30]**.startTime = 100.030s
**.host[31]**.startTime = 100.031s
**.host[32]**.startTime = 100.032s
**.host[33]**.startTime = 100.033s
**.host[34]**.startTime = 100.034s
**.host[35]**.startTime = 100.035s
**.host[36]**.startTime = 100.036s
**.host[37]**.startTime = 100.037s
**.host[38]**.startTime = 100.038s
**.host[39]**.startTime = 100.039s
**.host[40]**.startTime = 100.040s
**.host[41]**.startTime = 100.041s
**.host[42]**.startTime = 100.042s
**.host[43]**.startTime = 100.043s
**.host[44]**.startTime = 100.044s
**.host[45]**.startTime = 100.045s
**.host[46]**.startTime = 100.046s
**.host[47]**.startTime = 100.047s
**.host[48]**.startTime = 100.048s
**.host[49]**.startTime = 100.049s
**.host[50]**.startTime = 100.050s
**.host[51]**.startTime = 100.051s
**.host[52]**.startTime = 100.052s
**.host[53]**.startTime = 100.053s
**.host[54]**.startTime = 100.054s
**.host[55]**.startTime = 100.055s
**.host[56]**.startTime = 100.056s
**.host[57]**.startTime = 100.057s
**.host[58]**.startTime = 100.058s
**.host[59]**.startTime = 100.059s
**.host[60]**.startTime = 100.060s
**.host[61]**.startTime = 100.061s
**.host[62]**.startTime = 100.062s
**.host[63]**.startTime = 100.063s
**.host[64]**.startTime = 100.064s
**.host[65]**.startTime = 100.065s
**.host[66]**.startTime = 100.066s
**.host[67]**.startTime = 100.067s
**.host[68]**.startTime = 100.068s
**.host[69]**.startTime = 100.069s
**.host[70]**.startTime = 100.070s
**.host[71]**.startTime = 100.071s
**.host[72]**.startTime = 100.072s
**.host[73]**.startTime = 100.073s
**.host[74]**.startTime = 100.074s
**.host[75]**.startTime = 100.075s
**.host[76]**.startTime = 100.076s
**.host[77]**.startTime = 100.077s
**.host[78]**.startTime = 100.078s
**.host[79]**.startTime = 100.079s
**.host[80]**.startTime = 100.080s
**.host[81]**.startTime = 100.081s
**.host[82]**.startTime = 100.082s
**.host[83]**.startTime = 100.083s
**.host[84]**.startTime = 100.084s
**.host[85]**.startTime = 100.085s
**.host[86]**.startTime = 100.086s
**.host[87]**.startTime = 100.087s
**.host[88]**.startTime = 100.088s
**.host[89]**.startTime = 100.089s
**.host[90]**.startTime = 100.090s
**.host[91]**.startTime = 100.091s
**.host[92]**.startTime = 100.092s
**.host[93]**.startTime = 100.093s
**.host[94]**.startTime = 100.094s
**.host[95]**.startTime = 100.095s
**.host[96]**.startTime = 100.096s
**.host[97]**.startTime = 100.097s
**.host[98]**.startTime = 100.098s
**.host[99]**.startTime = 100.099s
**.host[100]**.startTime = 100.100s
**.host[101]**.startTime = 100.101s
**.host[102]**.startTime = 100.102s
**.host[103]**.startTime = 100.103s
**.host[104]**.startTime = 100.104s
**.host[105]**.startTime = 100.105s
**.host[106]**.startTime = 100.106s
**.host[107]**.startTime = 100.107s
**.host[108]**.startTime = 100.108s
**.host[109]**.startTime = 100.109s
**.host[110]**.startTime = 100.110s
**.host[111]**.startTime = 100.111s
**.host[112]**.startTime = 100.112s
**.host[113]**.startTime = 100.113s
**.host[114]**.startTime = 100.114s
**.host[115]**.startTime = 100.115s
**.host[116]**.startTime = 100.116s
**.host[117]**.startTime = 100.117s
**.host[118]**.startTime = 100.118s
**.host[119]**.startTime = 100.119s
**.host[120]**.startTime = 100.120s
**.host[121]**.startTime = 100.121s
**.host[122]**.startTime = 100.122s
**.host[123]**.startTime = 100.123s
**.host[124]**.startTime = 100.124s
**.host[125]**.startTime = 100.125s
**.host[126]**.startTime = 100.126s
**.host[127]**.startTime = 100.127s
**.host[128]**.startTime = 100.128s
**.host[129]**.startTime = 100.129s
**.host[130]**.startTime = 100.130s
**.host[131]**.startTime = 100.131s
**.host[132]**.startTime = 100.132s
**.host[133]**.startTime = 100.133s
**.host[134]**.startTime = 100.134s
**.host[135]**.startTime = 100.135s
**.host[136]**.startTime = 100.136s
**.host[137]**.startTime = 100.137s
**.host[138]**.startTime = 100.138s
**.host[139]**.startTime = 100.139s
**.host[140]**.startTime = 100.140s
**.host[141]**.startTime = 100.141s
**.host[142]**.startTime = 100.142s
**.host[143]**.startTime = 100.143s
**.host[144]**.startTime = 100.144s
**.host[145]**.startTime = 100.145s
**.host[146]**.startTime = 100.146s
**.host[147]**.startTime = 100.147s
**.host[148]**.startTime = 100.148s
**.host[149]**.startTime = 100.149s




**.scalar-recording = true
**.vector-recording = false
**.printOLSRmessages = true


# configure routing and interface info
**.gw[*].manetrouting.announcedNetworks = "0.0.0.0/0.0.0.0"
**.configurator.dumpAddresses = true
**.configurator.dumpTopology = true
**.configurator.dumpRoutes = true
**.configurator.addStaticRoutes = false
**.configurator.addDefaultRoutes = false
**.configurator.addSubnetRoutes = false
**.routingProtocol = "OLSR"
**.manetrouting.excludedInterfaces = "wlan1"
**.manetrouting.interfaces = "wlan0"
**.manetrouting.interface = "wlan0"

#RADIO CONFIGS
**.wlan[*].bitrate = 11Mbps
*.host[*].wlan[*].radio.maxDistance = 101m
*.gw[*].wlan[*].radio.maxDistance = 570m

##################################
#OLSR CONFIG
##################################
**.gw**.isFlooding = true
**.host**.isFlooding = false


###########################################################################################
[Config TwoClustersStaticFld1]
###########################################################################################

# mobility
**.mobilityType = "StationaryMobility"

**.hosts = 12
#Assignment of gateway nodes for backbone routing

**.gw = 25

#Left side
**.gw[0].*.constraintAreaMinX = 0m
**.gw[0].*.constraintAreaMinY = 0m
**.gw[0].*.constraintAreaMaxX = 0m
**.gw[0].*.constraintAreaMaxY = 0m
**.gw[1].*.constraintAreaMinX = 0m
**.gw[1].*.constraintAreaMinY = 400m
**.gw[1].*.constraintAreaMaxX = 0m
**.gw[1].*.constraintAreaMaxY = 400m
**.gw[2].*.constraintAreaMinX = 0m
**.gw[2].*.constraintAreaMinY = 800m
**.gw[2].*.constraintAreaMaxX = 0m
**.gw[2].*.constraintAreaMaxY = 800m
**.gw[3].*.constraintAreaMinX = 0m
**.gw[3].*.constraintAreaMinY = 1200m
**.gw[3].*.constraintAreaMaxX = 0m
**.gw[3].*.constraintAreaMaxY = 1200m
**.gw[4].*.constraintAreaMinX = 0m
**.gw[4].*.constraintAreaMinY = 1600m
**.gw[4].*.constraintAreaMaxX = 0m
**.gw[4].*.constraintAreaMaxY = 1600m

#Right side
**.gw[5].*.constraintAreaMinX = 1600m
**.gw[5].*.constraintAreaMinY = 0m
**.gw[5].*.constraintAreaMaxX = 1600m
**.gw[5].*.constraintAreaMaxY = 0m
**.gw[6].*.constraintAreaMinX = 1600m
**.gw[6].*.constraintAreaMinY = 400m
**.gw[6].*.constraintAreaMaxX = 1600m
**.gw[6].*.constraintAreaMaxY = 400m
**.gw[7].*.constraintAreaMinX = 1600m
**.gw[7].*.constraintAreaMinY = 800m
**.gw[7].*.constraintAreaMaxX = 1600m
**.gw[7].*.constraintAreaMaxY = 800m
**.gw[8].*.constraintAreaMinX = 1600m
**.gw[8].*.constraintAreaMinY = 1200m
**.gw[8].*.constraintAreaMaxX = 1600m
**.gw[8].*.constraintAreaMaxY = 1200m
**.gw[9].*.constraintAreaMinX = 1600m
**.gw[9].*.constraintAreaMinY = 1600m
**.gw[9].*.constraintAreaMaxX = 1600m
**.gw[9].*.constraintAreaMaxY = 1600m

#Middle line
**.gw[10].*.constraintAreaMinX = 800m
**.gw[10].*.constraintAreaMinY = 0m
**.gw[10].*.constraintAreaMaxX = 800m
**.gw[10].*.constraintAreaMaxY = 0m
**.gw[11].*.constraintAreaMinX = 800m
**.gw[11].*.constraintAreaMinY = 400m
**.gw[11].*.constraintAreaMaxX = 800m
**.gw[11].*.constraintAreaMaxY = 400m
**.gw[12].*.constraintAreaMinX = 800m
**.gw[12].*.constraintAreaMinY = 800m
**.gw[12].*.constraintAreaMaxX = 800m
**.gw[12].*.constraintAreaMaxY = 800m
**.gw[13].*.constraintAreaMinX = 800m
**.gw[13].*.constraintAreaMinY = 1200m
**.gw[13].*.constraintAreaMaxX = 800m
**.gw[13].*.constraintAreaMaxY = 1200m
**.gw[14].*.constraintAreaMinX = 800m
**.gw[14].*.constraintAreaMinY = 1600m
**.gw[14].*.constraintAreaMaxX = 800m
**.gw[14].*.constraintAreaMaxY = 1600m

#Left of centre column
**.gw[15].*.constraintAreaMinX = 400m
**.gw[15].*.constraintAreaMinY = 0m
**.gw[15].*.constraintAreaMaxX = 400m
**.gw[15].*.constraintAreaMaxY = 0m
**.gw[16].*.constraintAreaMinX = 400m
**.gw[16].*.constraintAreaMinY = 400m
**.gw[16].*.constraintAreaMaxX = 400m
**.gw[16].*.constraintAreaMaxY = 400m
**.gw[17].*.constraintAreaMinX = 400m
**.gw[17].*.constraintAreaMinY = 800m
**.gw[17].*.constraintAreaMaxX = 400m
**.gw[17].*.constraintAreaMaxY = 800m
**.gw[18].*.constraintAreaMinX = 400m
**.gw[18].*.constraintAreaMinY = 1200m
**.gw[18].*.constraintAreaMaxX = 400m
**.gw[18].*.constraintAreaMaxY = 1200m
**.gw[19].*.constraintAreaMinX = 400m
**.gw[19].*.constraintAreaMinY = 1600m
**.gw[19].*.constraintAreaMaxX = 400m
**.gw[19].*.constraintAreaMaxY = 1600m

#Right of centre column
**.gw[20].*.constraintAreaMinX = 1200m
**.gw[20].*.constraintAreaMinY = 0m
**.gw[20].*.constraintAreaMaxX = 1200m
**.gw[20].*.constraintAreaMaxY = 0m
**.gw[21].*.constraintAreaMinX = 1200m
**.gw[21].*.constraintAreaMinY = 400m
**.gw[21].*.constraintAreaMaxX = 1200m
**.gw[21].*.constraintAreaMaxY = 400m
**.gw[22].*.constraintAreaMinX = 1200m
**.gw[22].*.constraintAreaMinY = 800m
**.gw[22].*.constraintAreaMaxX = 1200m
**.gw[22].*.constraintAreaMaxY = 800m
**.gw[23].*.constraintAreaMinX = 1200m
**.gw[23].*.constraintAreaMinY = 1200m
**.gw[23].*.constraintAreaMaxX = 1200m
**.gw[23].*.constraintAreaMaxY = 1200m
**.gw[24].*.constraintAreaMinX = 1200m
**.gw[24].*.constraintAreaMinY = 1600m
**.gw[24].*.constraintAreaMaxX = 1200m
**.gw[24].*.constraintAreaMaxY = 1600m


#Top Left. Cluster 0
**.host[{0..5}].*.constraintAreaMinX = 0m
**.host[{0..5}].*.constraintAreaMinY = 0m
**.host[{0..5}].*.constraintAreaMaxX = 100m
**.host[{0..5}].*.constraintAreaMaxY = 100m

#Bottom Right. Cluster 1
**.host[{6..11}].*.constraintAreaMinX = 1500m
**.host[{6..11}].*.constraintAreaMinY = 1500m
**.host[{6..11}].*.constraintAreaMaxX = 1600m
**.host[{6..11}].*.constraintAreaMaxY = 1600m

**.udpApp[*].sendInterval = 1s

#Top Left. Cluster 0
**.host[0].udpApp[*].destAddresses = "host[4]"
**.host[1].udpApp[*].destAddresses = "host[5]"
**.host[2].udpApp[*].destAddresses = "host[6] host[7] host[8] host[9]"
**.host[3].udpApp[*].destAddresses = "host[6] host[7] host[8] host[9]"
**.host[4].udpApp[*].destAddresses = "host[6] host[7] host[8] host[9]"
**.host[5].udpApp[*].destAddresses = "host[6] host[7] host[8] host[9]"

#Bottom Right. Cluster 1
**.host[6].udpApp[*].destAddresses = "host[10]"
**.host[7].udpApp[*].destAddresses = "host[11]"
**.host[8].udpApp[*].destAddresses = "host[0] host[1] host[2] host[3]"
**.host[9].udpApp[*].destAddresses = "host[0] host[1] host[2] host[3]"
**.host[10].udpApp[*].destAddresses = "host[0] host[1] host[2] host[3]"
**.host[11].udpApp[*].destAddresses = "host[0] host[1] host[2] host[3]"



# configure IPv4 addresses
*.configurator.config = xml( \
"<config>\
		<interface hosts='gw[0] host[0] host[1] host[2] host[3] host[4] host[5]' names='wlan0' address='10.0.1.x' netmask='255.255.255.0'/>\
		<interface hosts='gw[9] host[6] host[7] host[8] host[9] host[10] host[11]' names='wlan0' address='10.0.2.x' netmask='255.255.255.0'/>\
		<interface hosts='gw[0] gw[1] gw[2] gw[3] gw[4] gw[5] gw[6] gw[7] gw[8] gw[9] gw[10] gw[11] gw[12] gw[13] gw[14] gw[15] gw[16] gw[17] gw[18] gw[19] gw[20] gw[21] gw[22] gw[23] gw[24]' names='wlan1' address='10.0.0.x' netmask='255.255.255.0'/>\
</config>")



# number of radios per host
*.gw[*].numRadios = 2
*.host[*].numRadios = 1 

# number of channels used
**.channelControl.numChannels = 4

# wlan interface - radio channel assignemnt
**.gw[0].wlan[0].radio.channelNumber = 0
	#vvv Bottom Right vvv
**.gw[9].wlan[0].radio.channelNumber = 1
**.gw[*].wlan[1].radio.channelNumber = 2

**.host[{0..5}].wlan[0].radio.channelNumber = 0
**.host[{6..11}].wlan[0].radio.channelNumber = 1






[Config TwoClustersStaticFld2]
#Only difference being send interval.

extends = TwoClustersStaticFld1
**.udpApp[*].sendInterval = 0.5s









################################################################
[Config ThreeClustersStaticFld1]
################################################################

# mobility
**.mobilityType = "StationaryMobility"

**.hosts = 18

#Assignment of gateway nodes for backbone routing
**.gw = 25

#Left side
**.gw[0].*.constraintAreaMinX = 0m
**.gw[0].*.constraintAreaMinY = 0m
**.gw[0].*.constraintAreaMaxX = 0m
**.gw[0].*.constraintAreaMaxY = 0m
**.gw[1].*.constraintAreaMinX = 0m
**.gw[1].*.constraintAreaMinY = 400m
**.gw[1].*.constraintAreaMaxX = 0m
**.gw[1].*.constraintAreaMaxY = 400m
**.gw[2].*.constraintAreaMinX = 0m
**.gw[2].*.constraintAreaMinY = 800m
**.gw[2].*.constraintAreaMaxX = 0m
**.gw[2].*.constraintAreaMaxY = 800m
**.gw[3].*.constraintAreaMinX = 0m
**.gw[3].*.constraintAreaMinY = 1200m
**.gw[3].*.constraintAreaMaxX = 0m
**.gw[3].*.constraintAreaMaxY = 1200m
**.gw[4].*.constraintAreaMinX = 0m
**.gw[4].*.constraintAreaMinY = 1600m
**.gw[4].*.constraintAreaMaxX = 0m
**.gw[4].*.constraintAreaMaxY = 1600m

#Right side
**.gw[5].*.constraintAreaMinX = 1600m
**.gw[5].*.constraintAreaMinY = 0m
**.gw[5].*.constraintAreaMaxX = 1600m
**.gw[5].*.constraintAreaMaxY = 0m
**.gw[6].*.constraintAreaMinX = 1600m
**.gw[6].*.constraintAreaMinY = 400m
**.gw[6].*.constraintAreaMaxX = 1600m
**.gw[6].*.constraintAreaMaxY = 400m
**.gw[7].*.constraintAreaMinX = 1600m
**.gw[7].*.constraintAreaMinY = 800m
**.gw[7].*.constraintAreaMaxX = 1600m
**.gw[7].*.constraintAreaMaxY = 800m
**.gw[8].*.constraintAreaMinX = 1600m
**.gw[8].*.constraintAreaMinY = 1200m
**.gw[8].*.constraintAreaMaxX = 1600m
**.gw[8].*.constraintAreaMaxY = 1200m
**.gw[9].*.constraintAreaMinX = 1600m
**.gw[9].*.constraintAreaMinY = 1600m
**.gw[9].*.constraintAreaMaxX = 1600m
**.gw[9].*.constraintAreaMaxY = 1600m

#Middle line
**.gw[10].*.constraintAreaMinX = 800m
**.gw[10].*.constraintAreaMinY = 0m
**.gw[10].*.constraintAreaMaxX = 800m
**.gw[10].*.constraintAreaMaxY = 0m
**.gw[11].*.constraintAreaMinX = 800m
**.gw[11].*.constraintAreaMinY = 400m
**.gw[11].*.constraintAreaMaxX = 800m
**.gw[11].*.constraintAreaMaxY = 400m
**.gw[12].*.constraintAreaMinX = 800m
**.gw[12].*.constraintAreaMinY = 800m
**.gw[12].*.constraintAreaMaxX = 800m
**.gw[12].*.constraintAreaMaxY = 800m
**.gw[13].*.constraintAreaMinX = 800m
**.gw[13].*.constraintAreaMinY = 1200m
**.gw[13].*.constraintAreaMaxX = 800m
**.gw[13].*.constraintAreaMaxY = 1200m
**.gw[14].*.constraintAreaMinX = 800m
**.gw[14].*.constraintAreaMinY = 1600m
**.gw[14].*.constraintAreaMaxX = 800m
**.gw[14].*.constraintAreaMaxY = 1600m

#Left of centre column
**.gw[15].*.constraintAreaMinX = 400m
**.gw[15].*.constraintAreaMinY = 0m
**.gw[15].*.constraintAreaMaxX = 400m
**.gw[15].*.constraintAreaMaxY = 0m
**.gw[16].*.constraintAreaMinX = 400m
**.gw[16].*.constraintAreaMinY = 400m
**.gw[16].*.constraintAreaMaxX = 400m
**.gw[16].*.constraintAreaMaxY = 400m
**.gw[17].*.constraintAreaMinX = 400m
**.gw[17].*.constraintAreaMinY = 800m
**.gw[17].*.constraintAreaMaxX = 400m
**.gw[17].*.constraintAreaMaxY = 800m
**.gw[18].*.constraintAreaMinX = 400m
**.gw[18].*.constraintAreaMinY = 1200m
**.gw[18].*.constraintAreaMaxX = 400m
**.gw[18].*.constraintAreaMaxY = 1200m
**.gw[19].*.constraintAreaMinX = 400m
**.gw[19].*.constraintAreaMinY = 1600m
**.gw[19].*.constraintAreaMaxX = 400m
**.gw[19].*.constraintAreaMaxY = 1600m

#Right of centre column
**.gw[20].*.constraintAreaMinX = 1200m
**.gw[20].*.constraintAreaMinY = 0m
**.gw[20].*.constraintAreaMaxX = 1200m
**.gw[20].*.constraintAreaMaxY = 0m
**.gw[21].*.constraintAreaMinX = 1200m
**.gw[21].*.constraintAreaMinY = 400m
**.gw[21].*.constraintAreaMaxX = 1200m
**.gw[21].*.constraintAreaMaxY = 400m
**.gw[22].*.constraintAreaMinX = 1200m
**.gw[22].*.constraintAreaMinY = 800m
**.gw[22].*.constraintAreaMaxX = 1200m
**.gw[22].*.constraintAreaMaxY = 800m
**.gw[23].*.constraintAreaMinX = 1200m
**.gw[23].*.constraintAreaMinY = 1200m
**.gw[23].*.constraintAreaMaxX = 1200m
**.gw[23].*.constraintAreaMaxY = 1200m
**.gw[24].*.constraintAreaMinX = 1200m
**.gw[24].*.constraintAreaMinY = 1600m
**.gw[24].*.constraintAreaMaxX = 1200m
**.gw[24].*.constraintAreaMaxY = 1600m

#Top Left. Cluster 0
**.host[{0..5}].*.constraintAreaMinX = 0m
**.host[{0..5}].*.constraintAreaMinY = 0m
**.host[{0..5}].*.constraintAreaMaxX = 100m
**.host[{0..5}].*.constraintAreaMaxY = 100m

#Bottom Right. Cluster 1
**.host[{6..11}].*.constraintAreaMinX = 1500m
**.host[{6..11}].*.constraintAreaMinY = 1500m
**.host[{6..11}].*.constraintAreaMaxX = 1600m
**.host[{6..11}].*.constraintAreaMaxY = 1600m

#Middle. Cluster 2
**.host[{12..17}].*.constraintAreaMinX = 750m
**.host[{12..17}].*.constraintAreaMinY = 750m
**.host[{12..17}].*.constraintAreaMaxX = 850m
**.host[{12..17}].*.constraintAreaMaxY = 850m

**.udpApp[*].sendInterval = 1s

#Top Left. Cluster 0
**.host[0].udpApp[*].destAddresses = "host[4]"
**.host[1].udpApp[*].destAddresses = "host[5]"
**.host[2].udpApp[*].destAddresses = "host[6] host[7] host[8] host[9]"
**.host[3].udpApp[*].destAddresses = "host[6] host[7] host[8] host[9]"
**.host[4].udpApp[*].destAddresses = "host[12] host[13] host[14] host[15]"
**.host[5].udpApp[*].destAddresses = "host[12] host[13] host[14] host[15]"

#Bottom Right. Cluster 1
**.host[6].udpApp[*].destAddresses = "host[10]"
**.host[7].udpApp[*].destAddresses = "host[11]"
**.host[8].udpApp[*].destAddresses = "host[0] host[1] host[2] host[3]"
**.host[9].udpApp[*].destAddresses = "host[0] host[1] host[2] host[3]"
**.host[10].udpApp[*].destAddresses = "host[12] host[13] host[14] host[15]"
**.host[11].udpApp[*].destAddresses = "host[12] host[13] host[14] host[15]"

#Middle. Cluster 2
**.host[12].udpApp[*].destAddresses = "host[16]"
**.host[13].udpApp[*].destAddresses = "host[17]"
**.host[14].udpApp[*].destAddresses = "host[0] host[1] host[2] host[3]"
**.host[15].udpApp[*].destAddresses = "host[0] host[1] host[2] host[3]"
**.host[16].udpApp[*].destAddresses = "host[6] host[7] host[8] host[9]"
**.host[17].udpApp[*].destAddresses = "host[6] host[7] host[8] host[9]"


# configure IPv4 addresses
*.configurator.config = xml( \
"<config>\
		<interface hosts='gw[0] host[0] host[1] host[2] host[3] host[4] host[5]' names='wlan0' address='10.0.1.x' netmask='255.255.255.0'/>\
		<interface hosts='gw[9] host[6] host[7] host[8] host[9] host[10] host[11]' names='wlan0' address='10.0.2.x' netmask='255.255.255.0'/>\
		<interface hosts='gw[12] host[12] host[13] host[14] host[15] host[16] host[17]' names='wlan0' address='10.0.3.x' netmask='255.255.255.0'/>\
		<interface hosts='gw[0] gw[1] gw[2] gw[3] gw[4] gw[5] gw[6] gw[7] gw[8] gw[9] gw[10] gw[11] gw[12] gw[13] gw[14] gw[15] gw[16] gw[17] gw[18] gw[19] gw[20] gw[21] gw[22] gw[23] gw[24]' names='wlan1' address='10.0.0.x' netmask='255.255.255.0'/>\
</config>")



# number of radios per host
*.gw[*].numRadios = 2
*.host[*].numRadios = 1 


#OBSERVATION
#It will always crash if the gateway channels are left uninitialized. 


# number of channels used
**.channelControl.numChannels = 26

#Configuration of Radio Channels
**.gw[0].wlan[0].radio.channelNumber = 0   #TOP LEFT CLUSTER
**.gw[1].wlan[0].radio.channelNumber = 1
**.gw[2].wlan[0].radio.channelNumber = 2
**.gw[3].wlan[0].radio.channelNumber = 3
**.gw[4].wlan[0].radio.channelNumber = 4
**.gw[5].wlan[0].radio.channelNumber = 5
**.gw[6].wlan[0].radio.channelNumber = 6
**.gw[7].wlan[0].radio.channelNumber = 7
**.gw[8].wlan[0].radio.channelNumber = 8
**.gw[9].wlan[0].radio.channelNumber = 9    #BOTTOM RIGHT CLUSTER
**.gw[10].wlan[0].radio.channelNumber = 10
**.gw[11].wlan[0].radio.channelNumber = 11
**.gw[12].wlan[0].radio.channelNumber = 12   #MIDDLE CLUSTER
**.gw[13].wlan[0].radio.channelNumber = 13
**.gw[14].wlan[0].radio.channelNumber = 14
**.gw[15].wlan[0].radio.channelNumber = 15
**.gw[16].wlan[0].radio.channelNumber = 16
**.gw[17].wlan[0].radio.channelNumber = 17
**.gw[18].wlan[0].radio.channelNumber = 18
**.gw[19].wlan[0].radio.channelNumber = 19
**.gw[20].wlan[0].radio.channelNumber = 20
**.gw[21].wlan[0].radio.channelNumber = 21
**.gw[22].wlan[0].radio.channelNumber = 22
**.gw[23].wlan[0].radio.channelNumber = 23
**.gw[24].wlan[0].radio.channelNumber = 24

**.gw[*].wlan[1].radio.channelNumber = 25

**.host[{0..5}].wlan[0].radio.channelNumber = 0
**.host[{6..11}].wlan[0].radio.channelNumber = 9
**.host[{12..17}].wlan[0].radio.channelNumber = 12



[Config ThreeClustersStaticFld2]

extends = ThreeClustersStaticFld1
**.udpApp[*].sendInterval=0.5s










#################################################################
[Config FiveClustersStaticFld1]
#################################################################

# mobility
**.mobilityType = "StationaryMobility"

**.hosts = 30

#Assignment of gateway nodes for backbone routing
**.gw = 25

#Left side
**.gw[0].*.constraintAreaMinX = 0m
**.gw[0].*.constraintAreaMinY = 0m
**.gw[0].*.constraintAreaMaxX = 0m
**.gw[0].*.constraintAreaMaxY = 0m
**.gw[1].*.constraintAreaMinX = 0m
**.gw[1].*.constraintAreaMinY = 400m
**.gw[1].*.constraintAreaMaxX = 0m
**.gw[1].*.constraintAreaMaxY = 400m
**.gw[2].*.constraintAreaMinX = 0m
**.gw[2].*.constraintAreaMinY = 800m
**.gw[2].*.constraintAreaMaxX = 0m
**.gw[2].*.constraintAreaMaxY = 800m
**.gw[3].*.constraintAreaMinX = 0m
**.gw[3].*.constraintAreaMinY = 1200m
**.gw[3].*.constraintAreaMaxX = 0m
**.gw[3].*.constraintAreaMaxY = 1200m
**.gw[4].*.constraintAreaMinX = 0m
**.gw[4].*.constraintAreaMinY = 1600m
**.gw[4].*.constraintAreaMaxX = 0m
**.gw[4].*.constraintAreaMaxY = 1600m

#Right side
**.gw[5].*.constraintAreaMinX = 1600m
**.gw[5].*.constraintAreaMinY = 0m
**.gw[5].*.constraintAreaMaxX = 1600m
**.gw[5].*.constraintAreaMaxY = 0m
**.gw[6].*.constraintAreaMinX = 1600m
**.gw[6].*.constraintAreaMinY = 400m
**.gw[6].*.constraintAreaMaxX = 1600m
**.gw[6].*.constraintAreaMaxY = 400m
**.gw[7].*.constraintAreaMinX = 1600m
**.gw[7].*.constraintAreaMinY = 800m
**.gw[7].*.constraintAreaMaxX = 1600m
**.gw[7].*.constraintAreaMaxY = 800m
**.gw[8].*.constraintAreaMinX = 1600m
**.gw[8].*.constraintAreaMinY = 1200m
**.gw[8].*.constraintAreaMaxX = 1600m
**.gw[8].*.constraintAreaMaxY = 1200m
**.gw[9].*.constraintAreaMinX = 1600m
**.gw[9].*.constraintAreaMinY = 1600m
**.gw[9].*.constraintAreaMaxX = 1600m
**.gw[9].*.constraintAreaMaxY = 1600m

#Middle line
**.gw[10].*.constraintAreaMinX = 800m
**.gw[10].*.constraintAreaMinY = 0m
**.gw[10].*.constraintAreaMaxX = 800m
**.gw[10].*.constraintAreaMaxY = 0m
**.gw[11].*.constraintAreaMinX = 800m
**.gw[11].*.constraintAreaMinY = 400m
**.gw[11].*.constraintAreaMaxX = 800m
**.gw[11].*.constraintAreaMaxY = 400m
**.gw[12].*.constraintAreaMinX = 800m
**.gw[12].*.constraintAreaMinY = 800m
**.gw[12].*.constraintAreaMaxX = 800m
**.gw[12].*.constraintAreaMaxY = 800m
**.gw[13].*.constraintAreaMinX = 800m
**.gw[13].*.constraintAreaMinY = 1200m
**.gw[13].*.constraintAreaMaxX = 800m
**.gw[13].*.constraintAreaMaxY = 1200m
**.gw[14].*.constraintAreaMinX = 800m
**.gw[14].*.constraintAreaMinY = 1600m
**.gw[14].*.constraintAreaMaxX = 800m
**.gw[14].*.constraintAreaMaxY = 1600m

#Left of centre column
**.gw[15].*.constraintAreaMinX = 400m
**.gw[15].*.constraintAreaMinY = 0m
**.gw[15].*.constraintAreaMaxX = 400m
**.gw[15].*.constraintAreaMaxY = 0m
**.gw[16].*.constraintAreaMinX = 400m
**.gw[16].*.constraintAreaMinY = 400m
**.gw[16].*.constraintAreaMaxX = 400m
**.gw[16].*.constraintAreaMaxY = 400m
**.gw[17].*.constraintAreaMinX = 400m
**.gw[17].*.constraintAreaMinY = 800m
**.gw[17].*.constraintAreaMaxX = 400m
**.gw[17].*.constraintAreaMaxY = 800m
**.gw[18].*.constraintAreaMinX = 400m
**.gw[18].*.constraintAreaMinY = 1200m
**.gw[18].*.constraintAreaMaxX = 400m
**.gw[18].*.constraintAreaMaxY = 1200m
**.gw[19].*.constraintAreaMinX = 400m
**.gw[19].*.constraintAreaMinY = 1600m
**.gw[19].*.constraintAreaMaxX = 400m
**.gw[19].*.constraintAreaMaxY = 1600m

#Right of centre column
**.gw[20].*.constraintAreaMinX = 1200m
**.gw[20].*.constraintAreaMinY = 0m
**.gw[20].*.constraintAreaMaxX = 1200m
**.gw[20].*.constraintAreaMaxY = 0m
**.gw[21].*.constraintAreaMinX = 1200m
**.gw[21].*.constraintAreaMinY = 400m
**.gw[21].*.constraintAreaMaxX = 1200m
**.gw[21].*.constraintAreaMaxY = 400m
**.gw[22].*.constraintAreaMinX = 1200m
**.gw[22].*.constraintAreaMinY = 800m
**.gw[22].*.constraintAreaMaxX = 1200m
**.gw[22].*.constraintAreaMaxY = 800m
**.gw[23].*.constraintAreaMinX = 1200m
**.gw[23].*.constraintAreaMinY = 1200m
**.gw[23].*.constraintAreaMaxX = 1200m
**.gw[23].*.constraintAreaMaxY = 1200m
**.gw[24].*.constraintAreaMinX = 1200m
**.gw[24].*.constraintAreaMinY = 1600m
**.gw[24].*.constraintAreaMaxX = 1200m
**.gw[24].*.constraintAreaMaxY = 1600m


#Top Left. Cluster 0
**.host[{0..5}].*.constraintAreaMinX = 0m
**.host[{0..5}].*.constraintAreaMinY = 0m
**.host[{0..5}].*.constraintAreaMaxX = 100m
**.host[{0..5}].*.constraintAreaMaxY = 100m

#Bottom Right. Cluster 1
**.host[{6..11}].*.constraintAreaMinX = 1500m
**.host[{6..11}].*.constraintAreaMinY = 1500m
**.host[{6..11}].*.constraintAreaMaxX = 1600m
**.host[{6..11}].*.constraintAreaMaxY = 1600m

#Middle. Cluster 2
**.host[{12..17}].*.constraintAreaMinX = 750m
**.host[{12..17}].*.constraintAreaMinY = 750m
**.host[{12..17}].*.constraintAreaMaxX = 850m
**.host[{12..17}].*.constraintAreaMaxY = 850m

#Mid-Right. Cluster 3
**.host[{18..23}].*.constraintAreaMinX = 1150m
**.host[{18..23}].*.constraintAreaMinY = 1150m
**.host[{18..23}].*.constraintAreaMaxX = 1250m
**.host[{18..23}].*.constraintAreaMaxY = 1250m

#Mid-Left. Cluster 4
**.host[{24..29}].*.constraintAreaMinX = 350m
**.host[{24..29}].*.constraintAreaMinY = 350m
**.host[{24..29}].*.constraintAreaMaxX = 450m
**.host[{24..29}].*.constraintAreaMaxY = 450m

**.udpApp[*].sendInterval = 1s

#Top Left. Cluster 0
**.host[0].udpApp[*].destAddresses = "host[4]"
**.host[1].udpApp[*].destAddresses = "host[5]"
**.host[2].udpApp[*].destAddresses = "host[6] host[7] host[8] host[9]"
**.host[3].udpApp[*].destAddresses = "host[12] host[13] host[14] host[15]"
**.host[4].udpApp[*].destAddresses = "host[18] host[19] host[20] host[21]"
**.host[5].udpApp[*].destAddresses = "host[24] host[25] host[26] host[27]"

#Bottom Right. Cluster 1
**.host[6].udpApp[*].destAddresses = "host[10]"
**.host[7].udpApp[*].destAddresses = "host[11]"
**.host[8].udpApp[*].destAddresses = "host[0] host[1] host[2] host[3]"
**.host[9].udpApp[*].destAddresses = "host[12] host[13] host[14] host[15]"
**.host[10].udpApp[*].destAddresses = "host[18] host[19] host[20] host[21]"
**.host[11].udpApp[*].destAddresses = "host[24] host[25] host[26] host[27]"

#Middle. Cluster 2
**.host[12].udpApp[*].destAddresses = "host[16]"
**.host[13].udpApp[*].destAddresses = "host[17]"
**.host[14].udpApp[*].destAddresses = "host[0] host[1] host[2] host[3]"
**.host[15].udpApp[*].destAddresses = "host[6] host[7] host[8] host[9]"
**.host[16].udpApp[*].destAddresses = "host[18] host[19] host[20] host[21]"
**.host[17].udpApp[*].destAddresses = "host[24] host[25] host[26] host[27]"

#Mid-Right. Cluster 3
**.host[18].udpApp[*].destAddresses = "host[22]"
**.host[19].udpApp[*].destAddresses = "host[23]"
**.host[20].udpApp[*].destAddresses = "host[0] host[1] host[2] host[3]"
**.host[21].udpApp[*].destAddresses = "host[6] host[7] host[8] host[9]"
**.host[22].udpApp[*].destAddresses = "host[12] host[13] host[14] host[15]"
**.host[23].udpApp[*].destAddresses = "host[24] host[25] host[26] host[27]"

#Mid-Left. Cluster 4
**.host[24].udpApp[*].destAddresses = "host[28]"
**.host[25].udpApp[*].destAddresses = "host[29]"
**.host[26].udpApp[*].destAddresses = "host[0] host[1] host[2] host[3]"
**.host[27].udpApp[*].destAddresses = "host[6] host[7] host[8] host[9]"
**.host[28].udpApp[*].destAddresses = "host[12] host[13] host[14] host[15]"
**.host[29].udpApp[*].destAddresses = "host[18] host[19] host[20] host[21]"
# configure IPv4 addresses
*.configurator.config = xml( \
"<config>\
		<interface hosts='gw[0] host[0] host[1] host[2] host[3] host[4] host[5]' names='wlan0' address='10.0.1.x' netmask='255.255.255.0'/>\
		<interface hosts='gw[1] host[6] host[7] host[8] host[9] host[10] host[11]' names='wlan0' address='10.0.2.x' netmask='255.255.255.0'/>\
		<interface hosts='gw[9] host[12] host[13] host[14] host[15] host[16] host[17]' names='wlan0' address='10.0.3.x' netmask='255.255.255.0'/>\
		<interface hosts='gw[23] host[18] host[19] host[20] host[21] host[22] host[23]' names='wlan0' address='10.0.4.x' netmask='255.255.255.0'/>\
		<interface hosts='gw[16] host[24] host[25] host[26] host[27] host[28] host[29]' names='wlan0' address='10.0.5.x' netmask='255.255.255.0'/>\